Version 4
SHEET 1 2292 712
WIRE 1024 -304 1008 -304
WIRE 1120 -304 1088 -304
WIRE 768 -176 704 -176
WIRE 880 -160 832 -160
WIRE 912 -160 880 -160
WIRE 1008 -160 1008 -304
WIRE 1008 -160 992 -160
WIRE 1024 -160 1008 -160
WIRE 768 -144 736 -144
WIRE 1120 -144 1120 -304
WIRE 1120 -144 1088 -144
WIRE 1232 -144 1120 -144
WIRE 1248 -144 1232 -144
WIRE 1024 -128 992 -128
WIRE 880 -80 880 -160
WIRE 736 32 736 -144
WIRE 880 32 880 0
WIRE 880 32 736 32
WIRE 944 32 880 32
WIRE 1120 32 1120 -144
WIRE 1120 32 1024 32
FLAG 432 -32 0
FLAG 528 -32 0
FLAG 432 -112 +VCC
FLAG 528 -112 -VCC
FLAG 704 -176 0
FLAG 992 -128 0
FLAG 800 -192 +VCC
FLAG 1056 -176 +VCC
FLAG 800 -128 -VCC
FLAG 1056 -112 -VCC
FLAG 1232 -144 out
SYMBOL External\\voltage 432 -128 R0
WINDOW 123 0 0 Left 0
WINDOW 39 0 0 Left 0
SYMATTR InstName V1
SYMATTR Value 5
SYMBOL External\\voltage 528 -128 R0
WINDOW 123 0 0 Left 0
WINDOW 39 0 0 Left 0
SYMATTR InstName V2
SYMATTR Value -5
SYMBOL EXTRA\\AudioOpamp\\TI\\NE5532 800 -160 R0
SYMATTR InstName U3
SYMBOL EXTRA\\AudioOpamp\\TI\\NE5532 1056 -144 R0
SYMATTR InstName U4
SYMBOL res 864 -96 R0
SYMATTR InstName R5
SYMATTR Value 10k
SYMBOL res 1040 16 R90
WINDOW 0 0 56 VBottom 2
WINDOW 3 32 56 VTop 2
SYMATTR InstName R6
SYMATTR Value 4k7
SYMBOL res 1008 -176 R90
WINDOW 0 0 56 VBottom 2
WINDOW 3 32 56 VTop 2
SYMATTR InstName R9
SYMATTR Value 680k
SYMBOL cap 1088 -320 R90
WINDOW 0 0 32 VBottom 2
WINDOW 3 32 32 VTop 2
SYMATTR InstName C3
SYMATTR Value 1µ
TEXT 388 -246 Left 2 !.tran 60 startup uic
