Version 4
SHEET 1 2164 1216
WIRE 32 80 -32 80
WIRE 352 80 256 80
WIRE 512 80 352 80
WIRE 576 80 512 80
WIRE 512 96 512 80
WIRE 896 96 848 96
WIRE 1024 96 976 96
WIRE 1152 96 1088 96
WIRE 32 144 -32 144
WIRE 288 144 256 144
WIRE 288 176 288 144
WIRE 352 176 352 160
WIRE 352 176 288 176
WIRE 512 192 512 160
WIRE 32 208 -32 208
WIRE 288 208 288 176
WIRE 288 208 256 208
WIRE 352 208 352 176
WIRE 32 272 -32 272
WIRE 288 272 256 272
WIRE 352 304 352 272
WIRE 288 336 288 272
WIRE 816 368 816 352
WIRE 288 384 288 336
WIRE 272 512 16 512
WIRE 32 560 -32 560
WIRE 352 560 256 560
WIRE 512 560 352 560
WIRE 576 560 512 560
WIRE 1024 560 1008 560
WIRE 1120 560 1088 560
WIRE 512 576 512 560
WIRE -32 592 -32 560
WIRE 16 624 16 512
WIRE 32 624 16 624
WIRE 288 624 256 624
WIRE 288 656 288 624
WIRE 352 656 352 640
WIRE 352 656 288 656
WIRE 352 672 352 656
WIRE 512 672 512 640
WIRE 32 688 -48 688
WIRE 272 688 272 512
WIRE 272 688 256 688
WIRE 288 688 272 688
WIRE 752 688 688 688
WIRE 864 704 816 704
WIRE 896 704 864 704
WIRE 1008 704 1008 560
WIRE 1008 704 976 704
WIRE 1024 704 1008 704
WIRE 752 720 720 720
WIRE 1120 720 1120 560
WIRE 1120 720 1088 720
WIRE 1232 720 1120 720
WIRE 1248 720 1232 720
WIRE 1024 736 992 736
WIRE 32 752 -32 752
WIRE 288 752 288 688
WIRE 352 752 288 752
WIRE 864 784 864 704
WIRE 720 896 720 720
WIRE 864 896 864 864
WIRE 864 896 720 896
WIRE 928 896 864 896
WIRE 1120 896 1120 720
WIRE 1120 896 1008 896
FLAG -32 80 0
FLAG 576 80 +VCC
FLAG 512 192 0
FLAG 352 304 0
FLAG -32 272 +VCC
FLAG -32 208 555_out
IOPIN -32 208 Out
FLAG 816 448 0
FLAG 816 352 +VCC
FLAG 288 336 Ctrl
FLAG 848 96 555_out
IOPIN 848 96 In
FLAG 1152 96 0
FLAG -32 592 0
FLAG 576 560 +VCC
FLAG 512 672 0
FLAG -32 752 +VCC
FLAG 352 816 0
FLAG -48 688 PulseOut
FLAG -32 144 PulseOut
FLAG 1248 432 0
FLAG 1248 352 -VCC
FLAG 688 688 0
FLAG 992 736 0
FLAG 784 672 +VCC
FLAG 1056 688 +VCC
FLAG 784 736 -VCC
FLAG 1056 752 -VCC
FLAG 1232 720 Ctrl
SYMBOL cap 496 96 R0
SYMATTR InstName C1
SYMATTR Value 0.1µ
SYMBOL res 336 64 R0
SYMATTR InstName R1
SYMATTR Value 100k
SYMBOL cap 336 208 R0
SYMATTR InstName C2
SYMATTR Value 5n
SYMBOL voltage 816 352 R0
WINDOW 123 0 0 Left 0
WINDOW 39 0 0 Left 0
SYMATTR InstName V1
SYMATTR Value 5
SYMBOL ne555 192 192 R0
SYMATTR InstName X1
SYMBOL res 992 80 R90
WINDOW 0 0 56 VBottom 2
WINDOW 3 32 56 VTop 2
SYMATTR InstName R2
SYMATTR Value 150
SYMBOL LED 1024 112 R270
WINDOW 0 72 32 VTop 2
WINDOW 3 0 32 VBottom 2
SYMATTR InstName D1
SYMBOL cap 496 576 R0
SYMATTR InstName C3
SYMATTR Value 0.1µ
SYMBOL ne555 192 672 R0
SYMATTR InstName X2
SYMBOL cap 336 752 R0
SYMATTR InstName C4
SYMATTR Value 20n
SYMBOL res 336 656 R0
SYMATTR InstName R3
SYMATTR Value 18k
SYMBOL res 336 544 R0
SYMATTR InstName R4
SYMATTR Value 82k
SYMBOL External\\voltage 1248 336 R0
WINDOW 123 0 0 Left 0
WINDOW 39 0 0 Left 0
SYMATTR InstName V3
SYMATTR Value -5
SYMBOL EXTRA\\AudioOpamp\\TI\\NE5532 784 704 R0
SYMATTR InstName U2
SYMBOL EXTRA\\AudioOpamp\\TI\\NE5532 1056 720 R0
SYMATTR InstName U3
SYMBOL res 848 768 R0
SYMATTR InstName R9
SYMATTR Value 10k
SYMBOL res 1024 880 R90
WINDOW 0 0 56 VBottom 2
WINDOW 3 32 56 VTop 2
SYMATTR InstName R10
SYMATTR Value 4k7
SYMBOL res 992 688 R90
WINDOW 0 0 56 VBottom 2
WINDOW 3 32 56 VTop 2
SYMATTR InstName R11
SYMATTR Value 680k
SYMBOL cap 1088 544 R90
WINDOW 0 0 32 VBottom 2
WINDOW 3 32 32 VTop 2
SYMATTR InstName C7
SYMATTR Value 1µ
TEXT 912 400 Left 2 !.tran 30 startup uic
TEXT 744 160 Left 2 ;LED Vf = 1.2 V\n=> 2.1 V across resistor when supply is 3.3 V\n=> 15 mA target gives 140R\n=> Closest E12 value is 150R
