Version 4
SHEET 1 1972 712
WIRE 1232 -432 1232 -464
WIRE 1232 -432 1184 -432
WIRE 1280 -432 1232 -432
WIRE 1280 -400 1280 -432
WIRE 1280 -208 1280 -320
WIRE 1296 -208 1280 -208
WIRE 1472 -208 1376 -208
WIRE 736 -176 736 -192
WIRE 912 -176 736 -176
WIRE 1184 -160 1184 -432
WIRE 1184 -160 1136 -160
WIRE 1216 -160 1184 -160
WIRE 960 -144 864 -144
WIRE 912 -128 912 -176
WIRE 864 -112 864 -144
WIRE 880 -112 864 -112
WIRE 960 -96 960 -144
WIRE 960 -96 944 -96
WIRE 976 -96 960 -96
WIRE 736 -80 736 -96
WIRE 880 -80 736 -80
WIRE 1184 -80 1136 -80
WIRE 1216 -80 1216 -96
WIRE 1216 -80 1184 -80
WIRE 1280 -80 1280 -208
WIRE 1344 -80 1280 -80
WIRE 736 -64 736 -80
WIRE 1472 -64 1472 -208
WIRE 1472 -64 1408 -64
WIRE 1584 -64 1472 -64
WIRE 1184 -48 1184 -80
WIRE 1264 -48 1184 -48
WIRE 1344 -48 1264 -48
WIRE 1024 -16 1024 -48
WIRE 912 16 912 -64
WIRE 912 16 736 16
WIRE 736 48 736 16
WIRE 1264 144 1264 -48
WIRE 1280 144 1264 144
WIRE 1376 144 1344 144
WIRE 1472 144 1472 -64
WIRE 1472 144 1456 144
FLAG 1376 -96 +VCC
FLAG 1584 -64 output
FLAG 432 -32 0
FLAG 528 -32 0
FLAG 432 -112 +VCC
FLAG 528 -112 -VCC
FLAG 1376 -32 -VCC
FLAG 736 -192 +VCC
FLAG 736 48 -VCC
FLAG 1232 -464 VGND
FLAG 1024 -16 0
FLAG 1024 -48 VGND
SYMBOL EXTRA\\AudioOpamp\\TI\\NE5532 1376 -64 R0
SYMATTR InstName U1
SYMBOL res 1120 -176 R0
SYMATTR InstName R1
SYMATTR Value {R}
SYMBOL res 1472 128 R90
WINDOW 0 0 56 VBottom 2
WINDOW 3 32 56 VTop 2
SYMATTR InstName R2
SYMATTR Value {R}
SYMBOL res 1392 -224 R90
WINDOW 0 0 56 VBottom 2
WINDOW 3 32 56 VTop 2
SYMATTR InstName R3
SYMATTR Value 100k
SYMBOL res 1296 -304 R180
WINDOW 0 36 76 Left 2
WINDOW 3 36 40 Left 2
SYMATTR InstName R4
SYMATTR Value 47k
SYMBOL cap 1200 -160 R0
SYMATTR InstName C1
SYMATTR Value {C}
SYMBOL cap 1344 128 R90
WINDOW 0 0 32 VBottom 2
WINDOW 3 32 32 VTop 2
SYMATTR InstName C2
SYMATTR Value {C}
SYMBOL External\\voltage 432 -128 R0
WINDOW 123 0 0 Left 0
WINDOW 39 0 0 Left 0
SYMATTR InstName V1
SYMATTR Value 5
SYMBOL EXTRA\\AudioOpamp\\TI\\NE5532 912 -96 R0
SYMATTR InstName U2
SYMBOL res 720 -192 R0
SYMATTR InstName R7
SYMATTR Value 220k
SYMBOL res 720 -80 R0
SYMATTR InstName R8
SYMATTR Value 220k
SYMBOL External\\voltage 528 -128 R0
WINDOW 123 0 0 Left 0
WINDOW 39 0 0 Left 0
SYMATTR InstName V2
SYMATTR Value -5
TEXT 336 -368 Left 2 !.tran 30 startup
TEXT 336 -336 Left 2 !.param C=1u R=160k
