Version 4
SHEET 1 2372 1272
WIRE 1600 -128 1552 -128
WIRE 1728 -128 1680 -128
WIRE 1856 -128 1792 -128
WIRE -192 -112 -192 -128
WIRE -416 -16 -416 -32
WIRE -192 -16 -192 -32
WIRE -32 -16 -192 -16
WIRE -192 0 -192 -16
WIRE -336 64 -336 -32
WIRE -192 112 -192 80
WIRE -16 480 -272 480
WIRE 1584 480 1520 480
WIRE 1904 480 1808 480
WIRE 2064 480 1904 480
WIRE 2128 480 2064 480
WIRE 976 496 960 496
WIRE 1072 496 1040 496
WIRE 2064 496 2064 480
WIRE -256 528 -320 528
WIRE 64 528 -32 528
WIRE 224 528 64 528
WIRE 288 528 224 528
WIRE 224 544 224 528
WIRE 1584 544 1520 544
WIRE 1840 544 1808 544
WIRE -320 560 -320 528
WIRE 1840 576 1840 544
WIRE 1904 576 1904 560
WIRE 1904 576 1840 576
WIRE -272 592 -272 480
WIRE -256 592 -272 592
WIRE 0 592 -32 592
WIRE 2064 592 2064 560
WIRE 1584 608 1520 608
WIRE 1840 608 1840 576
WIRE 1840 608 1808 608
WIRE 1904 608 1904 576
WIRE 0 624 0 592
WIRE 64 624 64 608
WIRE 64 624 0 624
WIRE 704 624 640 624
WIRE 64 640 64 624
WIRE 224 640 224 608
WIRE 816 640 768 640
WIRE 848 640 816 640
WIRE 960 640 960 496
WIRE 960 640 928 640
WIRE 976 640 960 640
WIRE -256 656 -336 656
WIRE -16 656 -16 480
WIRE -16 656 -32 656
WIRE 0 656 -16 656
WIRE 704 656 672 656
WIRE 1072 656 1072 496
WIRE 1072 656 1040 656
WIRE 1184 656 1072 656
WIRE 1200 656 1184 656
WIRE 976 672 944 672
WIRE 1584 672 1520 672
WIRE 1840 672 1808 672
WIRE 1904 704 1904 672
WIRE -256 720 -320 720
WIRE 0 720 0 656
WIRE 64 720 0 720
WIRE 816 720 816 640
WIRE 944 720 944 672
WIRE 1840 736 1840 672
WIRE 944 752 944 720
WIRE 1840 784 1840 736
WIRE 672 832 672 656
WIRE 816 832 816 800
WIRE 816 832 672 832
WIRE 880 832 816 832
WIRE 1072 832 1072 656
WIRE 1072 832 960 832
FLAG 1520 480 0
FLAG 2128 480 +VCC
FLAG 2064 592 0
FLAG 1904 704 0
FLAG 1520 672 +VCC
FLAG 1520 608 555_out
IOPIN 1520 608 Out
FLAG -416 64 0
FLAG -416 -32 +VCC
FLAG 1840 736 Ctrl
FLAG 1552 -128 555_out
IOPIN 1552 -128 In
FLAG 1856 -128 0
FLAG -320 560 0
FLAG 288 528 +VCC
FLAG 224 640 0
FLAG -320 720 +VCC
FLAG 64 784 0
FLAG -336 656 PulseOut
FLAG 1520 544 PulseOut
FLAG -336 64 0
FLAG -336 -32 -VCC
FLAG 736 608 +VCC
FLAG 1008 624 +VCC
FLAG 736 672 -VCC
FLAG 1008 688 -VCC
FLAG 1184 656 Ctrl
FLAG -192 -128 +VCC
FLAG -192 112 -VCC
FLAG -32 -16 VGND
FLAG 640 624 VGND
FLAG 944 720 VGND
SYMBOL cap 2048 496 R0
SYMATTR InstName C1
SYMATTR Value 0.1µ
SYMBOL res 1888 464 R0
SYMATTR InstName R1
SYMATTR Value 100k
SYMBOL cap 1888 608 R0
SYMATTR InstName C2
SYMATTR Value 5n
SYMBOL voltage -416 -32 R0
WINDOW 123 0 0 Left 0
WINDOW 39 0 0 Left 0
SYMATTR InstName V1
SYMATTR Value 5
SYMBOL ne555 1744 592 R0
SYMATTR InstName X1
SYMBOL res 1696 -144 R90
WINDOW 0 0 56 VBottom 2
WINDOW 3 32 56 VTop 2
SYMATTR InstName R2
SYMATTR Value 150
SYMBOL LED 1728 -112 R270
WINDOW 0 72 32 VTop 2
WINDOW 3 0 32 VBottom 2
SYMATTR InstName D1
SYMBOL cap 208 544 R0
SYMATTR InstName C3
SYMATTR Value 0.1µ
SYMBOL ne555 -96 640 R0
SYMATTR InstName X2
SYMBOL cap 48 720 R0
SYMATTR InstName C4
SYMATTR Value 20n
SYMBOL res 48 624 R0
SYMATTR InstName R3
SYMATTR Value 18k
SYMBOL res 48 512 R0
SYMATTR InstName R4
SYMATTR Value 82k
SYMBOL res 800 704 R0
SYMATTR InstName R9
SYMATTR Value 6k8
SYMBOL res 976 816 R90
WINDOW 0 0 56 VBottom 2
WINDOW 3 32 56 VTop 2
SYMATTR InstName R10
SYMATTR Value 4k7
SYMBOL res 944 624 R90
WINDOW 0 0 56 VBottom 2
WINDOW 3 32 56 VTop 2
SYMATTR InstName R11
SYMATTR Value 680k
SYMBOL cap 1040 480 R90
WINDOW 0 0 32 VBottom 2
WINDOW 3 32 32 VTop 2
SYMATTR InstName C7
SYMATTR Value 1µ
SYMBOL res -208 -128 R0
SYMATTR InstName R5
SYMATTR Value 10k
SYMBOL res -208 -16 R0
SYMATTR InstName R6
SYMATTR Value 10k
SYMBOL Arturia\\TL062 1008 656 R0
SYMATTR InstName U4
SYMATTR Value TL062
SYMBOL Arturia\\TL062 736 640 R0
SYMATTR InstName U2
SYMATTR Value TL062
TEXT 704 -192 Left 2 !.tran 0 60 0 2 uic\n.inc TL062.lib
TEXT -368 368 Left 5 ;Square Wave Generator
TEXT 560 368 Left 5 ;Triangle Wave Generator
TEXT 1592 352 Left 5 ;PWM Generator
TEXT -384 -280 Left 5 ;Power Supply
TEXT 528 -304 Left 5 ;Simulation Parameters
TEXT 1544 -296 Left 5 ;Output
TEXT 560 488 Left 1 ;Note: works IRL with a TL062, yields apx. +1V to +4V
RECTANGLE Normal 416 864 -512 288 2
RECTANGLE Normal 1280 960 480 288 2
RECTANGLE Normal 2240 864 1344 288 2
RECTANGLE Normal 192 224 -512 -352 2
RECTANGLE Normal 1184 -128 480 -352 2
RECTANGLE Normal 1952 0 1344 -352 2
