Version 4
SHEET 1 1552 932
WIRE 32 80 -32 80
WIRE 352 80 256 80
WIRE 512 80 352 80
WIRE 576 80 512 80
WIRE 512 96 512 80
WIRE 896 96 848 96
WIRE 1024 96 976 96
WIRE 1152 96 1088 96
WIRE -32 112 -32 80
WIRE 32 144 0 144
WIRE 288 144 256 144
WIRE 288 176 288 144
WIRE 352 176 352 160
WIRE 352 176 288 176
WIRE 512 192 512 160
WIRE 32 208 -32 208
WIRE 288 208 288 176
WIRE 288 208 256 208
WIRE 352 208 352 176
WIRE 32 272 -32 272
WIRE 288 272 256 272
WIRE 352 304 352 272
WIRE 288 336 288 272
WIRE 0 368 0 144
WIRE 816 368 816 352
WIRE 288 384 288 336
WIRE 0 432 0 368
FLAG -32 112 0
FLAG 576 80 +VCC
FLAG 512 192 0
FLAG 352 304 0
FLAG -32 272 +VCC
FLAG -32 208 555_out
IOPIN -32 208 Out
FLAG 816 448 0
FLAG 816 352 +VCC
FLAG 288 464 0
FLAG 288 336 Ctrl
FLAG 0 368 Trig
FLAG 0 512 0
FLAG 848 96 555_out
IOPIN 848 96 In
FLAG 1152 96 0
SYMBOL cap 496 96 R0
SYMATTR InstName C1
SYMATTR Value 0.1µ
SYMBOL res 336 64 R0
SYMATTR InstName R1
SYMATTR Value 100k
SYMBOL cap 336 208 R0
SYMATTR InstName C2
SYMATTR Value 5n
SYMBOL External\\voltage 816 352 R0
WINDOW 123 0 0 Left 0
WINDOW 39 0 0 Left 0
SYMATTR InstName V1
SYMATTR Value 5
SYMBOL External\\Misc\\signal 288 368 R0
WINDOW 0 24 16 Left 2
WINDOW 3 24 104 Left 2
WINDOW 123 0 0 Left 0
WINDOW 39 0 0 Left 0
SYMATTR InstName V2
SYMATTR Value PULSE(0 4 1u 25m 25m 0 50m)
SYMBOL Arturia\\555\\Pwm_Vco\\Jerarq\\ne555 192 192 R0
SYMATTR InstName X1
SYMBOL External\\Misc\\signal 0 416 R0
WINDOW 0 24 16 Left 2
WINDOW 3 24 104 Left 2
WINDOW 123 0 0 Left 0
WINDOW 39 0 0 Left 0
SYMATTR InstName V4
SYMATTR Value PULSE(0 5 1n 1n 1n 990u 1m)
SYMBOL res 992 80 R90
WINDOW 0 0 56 VBottom 2
WINDOW 3 32 56 VTop 2
SYMATTR InstName R2
SYMATTR Value 150
SYMBOL LED 1024 112 R270
WINDOW 0 72 32 VTop 2
WINDOW 3 0 32 VBottom 2
SYMATTR InstName D1
SYMATTR Value LedBLUE
SYMATTR Description Diode
SYMATTR Type diode
TEXT 914 400 Left 2 !.tran 0 110m 0 1u
TEXT 744 160 Left 2 ;LED Vf = 1.2 V\n=> 2.1 V across resistor when supply is 3.3 V\n=> 15 mA target gives 140R\n=> Closest E12 value is 150R
